
---------- Begin Simulation Statistics ----------
simSeconds                                   3.724730                       # Number of seconds simulated (Second)
simTicks                                 3724729544000                       # Number of ticks simulated (Tick)
finalTick                                3724729544000                       # Number of ticks from beginning of simulation (restored from checkpoints and never reset) (Tick)
simFreq                                  1000000000000                       # The number of ticks per simulated second ((Tick/Second))
hostSeconds                                    190.72                       # Real time elapsed on the host (Second)
hostTickRate                              19529918962                       # The number of ticks simulated per host second (ticks/s) ((Tick/Second))
hostMemory                                   30597104                       # Number of bytes of host memory used (Byte)
simInsts                                     50729772                       # Number of instructions simulated (Count)
simOps                                       50731237                       # Number of ops (including micro ops) simulated (Count)
hostInstRate                                   265992                       # Simulator instruction rate (inst/s) ((Count/Second))
hostOpRate                                     266000                       # Simulator op (including micro ops) rate (op/s) ((Count/Second))
board.cache_hierarchy.membus.transDist::ReadReq     74548542                       # Transaction distribution (Count)
board.cache_hierarchy.membus.transDist::ReadResp     74548546                       # Transaction distribution (Count)
board.cache_hierarchy.membus.transDist::WriteReq      7325222                       # Transaction distribution (Count)
board.cache_hierarchy.membus.transDist::WriteResp      7325222                       # Transaction distribution (Count)
board.cache_hierarchy.membus.transDist::LoadLockedReq            4                       # Transaction distribution (Count)
board.cache_hierarchy.membus.transDist::StoreCondReq            4                       # Transaction distribution (Count)
board.cache_hierarchy.membus.transDist::StoreCondResp            4                       # Transaction distribution (Count)
board.cache_hierarchy.membus.transDist::SwapReq           18                       # Transaction distribution (Count)
board.cache_hierarchy.membus.transDist::SwapResp           18                       # Transaction distribution (Count)
board.cache_hierarchy.membus.pktCount_board.processor.cores.core.icache_port::board.memory.mem_ctrl0.port     61736158                       # Packet count per connected requestor and responder (Count)
board.cache_hierarchy.membus.pktCount_board.processor.cores.core.icache_port::board.memory.mem_ctrl1.port     39723918                       # Packet count per connected requestor and responder (Count)
board.cache_hierarchy.membus.pktCount_board.processor.cores.core.icache_port::total    101460076                       # Packet count per connected requestor and responder (Count)
board.cache_hierarchy.membus.pktCount_board.processor.cores.core.dcache_port::board.memory.mem_ctrl0.port      4125780                       # Packet count per connected requestor and responder (Count)
board.cache_hierarchy.membus.pktCount_board.processor.cores.core.dcache_port::board.memory.mem_ctrl1.port     58161724                       # Packet count per connected requestor and responder (Count)
board.cache_hierarchy.membus.pktCount_board.processor.cores.core.dcache_port::total     62287504                       # Packet count per connected requestor and responder (Count)
board.cache_hierarchy.membus.pktCount::total    163747580                       # Packet count per connected requestor and responder (Count)
board.cache_hierarchy.membus.pktSize_board.processor.cores.core.icache_port::board.memory.mem_ctrl0.port    123472316                       # Cumulative packet size per connected requestor and responder (Byte)
board.cache_hierarchy.membus.pktSize_board.processor.cores.core.icache_port::board.memory.mem_ctrl1.port     79447836                       # Cumulative packet size per connected requestor and responder (Byte)
board.cache_hierarchy.membus.pktSize_board.processor.cores.core.icache_port::total    202920152                       # Cumulative packet size per connected requestor and responder (Byte)
board.cache_hierarchy.membus.pktSize_board.processor.cores.core.dcache_port::board.memory.mem_ctrl0.port      2072321                       # Cumulative packet size per connected requestor and responder (Byte)
board.cache_hierarchy.membus.pktSize_board.processor.cores.core.dcache_port::board.memory.mem_ctrl1.port    126636998                       # Cumulative packet size per connected requestor and responder (Byte)
board.cache_hierarchy.membus.pktSize_board.processor.cores.core.dcache_port::total    128709319                       # Cumulative packet size per connected requestor and responder (Byte)
board.cache_hierarchy.membus.pktSize::total    331629471                       # Cumulative packet size per connected requestor and responder (Byte)
board.cache_hierarchy.membus.snoops                 0                       # Total snoops (Count)
board.cache_hierarchy.membus.snoopTraffic            0                       # Total snoop traffic (Byte)
board.cache_hierarchy.membus.snoopFanout::samples     81873790                       # Request fanout histogram (Count)
board.cache_hierarchy.membus.snoopFanout::mean            0                       # Request fanout histogram (Count)
board.cache_hierarchy.membus.snoopFanout::stdev            0                       # Request fanout histogram (Count)
board.cache_hierarchy.membus.snoopFanout::underflows            0      0.00%      0.00% # Request fanout histogram (Count)
board.cache_hierarchy.membus.snoopFanout::0     81873790    100.00%    100.00% # Request fanout histogram (Count)
board.cache_hierarchy.membus.snoopFanout::1            0      0.00%    100.00% # Request fanout histogram (Count)
board.cache_hierarchy.membus.snoopFanout::overflows            0      0.00%    100.00% # Request fanout histogram (Count)
board.cache_hierarchy.membus.snoopFanout::min_value            0                       # Request fanout histogram (Count)
board.cache_hierarchy.membus.snoopFanout::max_value            0                       # Request fanout histogram (Count)
board.cache_hierarchy.membus.snoopFanout::total     81873790                       # Request fanout histogram (Count)
board.cache_hierarchy.membus.badaddr_responder.power_state.pwrStateResidencyTicks::UNDEFINED 3724729544000                       # Cumulative time (in ticks) in various power states (Tick)
board.cache_hierarchy.membus.power_state.pwrStateResidencyTicks::UNDEFINED 3724729544000                       # Cumulative time (in ticks) in various power states (Tick)
board.cache_hierarchy.membus.reqLayer0.occupancy  34492770000                       # Layer occupancy (ticks) (Tick)
board.cache_hierarchy.membus.reqLayer0.utilization          0.0                       # Layer utilization (Ratio)
board.cache_hierarchy.membus.reqLayer1.occupancy  54706264000                       # Layer occupancy (ticks) (Tick)
board.cache_hierarchy.membus.reqLayer1.utilization          0.0                       # Layer utilization (Ratio)
board.cache_hierarchy.membus.respLayer0.occupancy 114988549000                       # Layer occupancy (ticks) (Tick)
board.cache_hierarchy.membus.respLayer0.utilization          0.0                       # Layer utilization (Ratio)
board.cache_hierarchy.membus.respLayer1.occupancy  58926820250                       # Layer occupancy (ticks) (Tick)
board.cache_hierarchy.membus.respLayer1.utilization          0.0                       # Layer utilization (Ratio)
board.cache_hierarchy.membus.snoop_filter.totRequests            0                       # Total number of requests made to the snoop filter. (Count)
board.cache_hierarchy.membus.snoop_filter.hitSingleRequests            0                       # Number of requests hitting in the snoop filter with a single holder of the requested data. (Count)
board.cache_hierarchy.membus.snoop_filter.hitMultiRequests            0                       # Number of requests hitting in the snoop filter with multiple (>1) holders of the requested data. (Count)
board.cache_hierarchy.membus.snoop_filter.totSnoops            0                       # Total number of snoops made to the snoop filter. (Count)
board.cache_hierarchy.membus.snoop_filter.hitSingleSnoops            0                       # Number of snoops hitting in the snoop filter with a single holder of the requested data. (Count)
board.cache_hierarchy.membus.snoop_filter.hitMultiSnoops            0                       # Number of snoops hitting in the snoop filter with multiple (>1) holders of the requested data. (Count)
board.clk_domain.clock                           1000                       # Clock period in ticks (Tick)
board.clk_domain.voltage_domain.voltage             1                       # Voltage in Volts (Volt)
board.memory.mem_ctrl0.avgPriority_processor.cores.core.inst::samples  30868079.00                       # Average QoS priority value for accepted requests (Count)
board.memory.mem_ctrl0.avgPriority_processor.cores.core.data::samples    853937.00                       # Average QoS priority value for accepted requests (Count)
board.memory.mem_ctrl0.priorityMinLatency 0.000000018750                       # per QoS priority minimum request to response latency (Second)
board.memory.mem_ctrl0.priorityMaxLatency 2.053564597250                       # per QoS priority maximum request to response latency (Second)
board.memory.mem_ctrl0.numReadWriteTurnArounds        19680                       # Number of turnarounds from READ to WRITE (Count)
board.memory.mem_ctrl0.numWriteReadTurnArounds        19680                       # Number of turnarounds from WRITE to READ (Count)
board.memory.mem_ctrl0.numStayReadState      65246605                       # Number of times bus staying in READ state (Count)
board.memory.mem_ctrl0.numStayWriteState       333930                       # Number of times bus staying in WRITE state (Count)
board.memory.mem_ctrl0.readReqs              31369168                       # Number of read requests accepted (Count)
board.memory.mem_ctrl0.writeReqs              1561801                       # Number of write requests accepted (Count)
board.memory.mem_ctrl0.readBursts            31369168                       # Number of controller read bursts, including those serviced by the write queue (Count)
board.memory.mem_ctrl0.writeBursts            1561801                       # Number of controller write bursts, including those merged in the write queue (Count)
board.memory.mem_ctrl0.servicedByWrQ               71                       # Number of controller read bursts serviced by the write queue (Count)
board.memory.mem_ctrl0.mergedWrBursts         1208882                       # Number of controller write bursts merged with an existing one (Count)
board.memory.mem_ctrl0.neitherReadNorWriteReqs            0                       # Number of requests that are neither read nor write (Count)
board.memory.mem_ctrl0.avgRdQLen                 1.00                       # Average read queue length when enqueuing ((Count/Tick))
board.memory.mem_ctrl0.avgWrQLen                22.65                       # Average write queue length when enqueuing ((Count/Tick))
board.memory.mem_ctrl0.numRdRetry                   0                       # Number of times read queue was full causing retry (Count)
board.memory.mem_ctrl0.numWrRetry                   0                       # Number of times write queue was full causing retry (Count)
board.memory.mem_ctrl0.readPktSize::0          500541                       # Read request sizes (log2) (Count)
board.memory.mem_ctrl0.readPktSize::1               8                       # Read request sizes (log2) (Count)
board.memory.mem_ctrl0.readPktSize::2        30868170                       # Read request sizes (log2) (Count)
board.memory.mem_ctrl0.readPktSize::3             310                       # Read request sizes (log2) (Count)
board.memory.mem_ctrl0.readPktSize::4             139                       # Read request sizes (log2) (Count)
board.memory.mem_ctrl0.readPktSize::5               0                       # Read request sizes (log2) (Count)
board.memory.mem_ctrl0.readPktSize::6               0                       # Read request sizes (log2) (Count)
board.memory.mem_ctrl0.writePktSize::0        1561098                       # Write request sizes (log2) (Count)
board.memory.mem_ctrl0.writePktSize::1              0                       # Write request sizes (log2) (Count)
board.memory.mem_ctrl0.writePktSize::2             78                       # Write request sizes (log2) (Count)
board.memory.mem_ctrl0.writePktSize::3            621                       # Write request sizes (log2) (Count)
board.memory.mem_ctrl0.writePktSize::4              0                       # Write request sizes (log2) (Count)
board.memory.mem_ctrl0.writePktSize::5              0                       # Write request sizes (log2) (Count)
board.memory.mem_ctrl0.writePktSize::6              4                       # Write request sizes (log2) (Count)
board.memory.mem_ctrl0.rdQLenPdf::0          31369097                       # What read queue length does an incoming req see (Count)
board.memory.mem_ctrl0.rdQLenPdf::1                 0                       # What read queue length does an incoming req see (Count)
board.memory.mem_ctrl0.rdQLenPdf::2                 0                       # What read queue length does an incoming req see (Count)
board.memory.mem_ctrl0.rdQLenPdf::3                 0                       # What read queue length does an incoming req see (Count)
board.memory.mem_ctrl0.rdQLenPdf::4                 0                       # What read queue length does an incoming req see (Count)
board.memory.mem_ctrl0.rdQLenPdf::5                 0                       # What read queue length does an incoming req see (Count)
board.memory.mem_ctrl0.rdQLenPdf::6                 0                       # What read queue length does an incoming req see (Count)
board.memory.mem_ctrl0.rdQLenPdf::7                 0                       # What read queue length does an incoming req see (Count)
board.memory.mem_ctrl0.rdQLenPdf::8                 0                       # What read queue length does an incoming req see (Count)
board.memory.mem_ctrl0.rdQLenPdf::9                 0                       # What read queue length does an incoming req see (Count)
board.memory.mem_ctrl0.rdQLenPdf::10                0                       # What read queue length does an incoming req see (Count)
board.memory.mem_ctrl0.rdQLenPdf::11                0                       # What read queue length does an incoming req see (Count)
board.memory.mem_ctrl0.rdQLenPdf::12                0                       # What read queue length does an incoming req see (Count)
board.memory.mem_ctrl0.rdQLenPdf::13                0                       # What read queue length does an incoming req see (Count)
board.memory.mem_ctrl0.rdQLenPdf::14                0                       # What read queue length does an incoming req see (Count)
board.memory.mem_ctrl0.rdQLenPdf::15                0                       # What read queue length does an incoming req see (Count)
board.memory.mem_ctrl0.rdQLenPdf::16                0                       # What read queue length does an incoming req see (Count)
board.memory.mem_ctrl0.rdQLenPdf::17                0                       # What read queue length does an incoming req see (Count)
board.memory.mem_ctrl0.rdQLenPdf::18                0                       # What read queue length does an incoming req see (Count)
board.memory.mem_ctrl0.rdQLenPdf::19                0                       # What read queue length does an incoming req see (Count)
board.memory.mem_ctrl0.rdQLenPdf::20                0                       # What read queue length does an incoming req see (Count)
board.memory.mem_ctrl0.rdQLenPdf::21                0                       # What read queue length does an incoming req see (Count)
board.memory.mem_ctrl0.rdQLenPdf::22                0                       # What read queue length does an incoming req see (Count)
board.memory.mem_ctrl0.rdQLenPdf::23                0                       # What read queue length does an incoming req see (Count)
board.memory.mem_ctrl0.rdQLenPdf::24                0                       # What read queue length does an incoming req see (Count)
board.memory.mem_ctrl0.rdQLenPdf::25                0                       # What read queue length does an incoming req see (Count)
board.memory.mem_ctrl0.rdQLenPdf::26                0                       # What read queue length does an incoming req see (Count)
board.memory.mem_ctrl0.rdQLenPdf::27                0                       # What read queue length does an incoming req see (Count)
board.memory.mem_ctrl0.rdQLenPdf::28                0                       # What read queue length does an incoming req see (Count)
board.memory.mem_ctrl0.rdQLenPdf::29                0                       # What read queue length does an incoming req see (Count)
board.memory.mem_ctrl0.rdQLenPdf::30                0                       # What read queue length does an incoming req see (Count)
board.memory.mem_ctrl0.rdQLenPdf::31                0                       # What read queue length does an incoming req see (Count)
board.memory.mem_ctrl0.wrQLenPdf::0                 1                       # What write queue length does an incoming req see (Count)
board.memory.mem_ctrl0.wrQLenPdf::1                 1                       # What write queue length does an incoming req see (Count)
board.memory.mem_ctrl0.wrQLenPdf::2                 1                       # What write queue length does an incoming req see (Count)
board.memory.mem_ctrl0.wrQLenPdf::3                 1                       # What write queue length does an incoming req see (Count)
board.memory.mem_ctrl0.wrQLenPdf::4                 1                       # What write queue length does an incoming req see (Count)
board.memory.mem_ctrl0.wrQLenPdf::5                 1                       # What write queue length does an incoming req see (Count)
board.memory.mem_ctrl0.wrQLenPdf::6                 1                       # What write queue length does an incoming req see (Count)
board.memory.mem_ctrl0.wrQLenPdf::7                 1                       # What write queue length does an incoming req see (Count)
board.memory.mem_ctrl0.wrQLenPdf::8                 1                       # What write queue length does an incoming req see (Count)
board.memory.mem_ctrl0.wrQLenPdf::9                 1                       # What write queue length does an incoming req see (Count)
board.memory.mem_ctrl0.wrQLenPdf::10                1                       # What write queue length does an incoming req see (Count)
board.memory.mem_ctrl0.wrQLenPdf::11                1                       # What write queue length does an incoming req see (Count)
board.memory.mem_ctrl0.wrQLenPdf::12                1                       # What write queue length does an incoming req see (Count)
board.memory.mem_ctrl0.wrQLenPdf::13                1                       # What write queue length does an incoming req see (Count)
board.memory.mem_ctrl0.wrQLenPdf::14                1                       # What write queue length does an incoming req see (Count)
board.memory.mem_ctrl0.wrQLenPdf::15            18997                       # What write queue length does an incoming req see (Count)
board.memory.mem_ctrl0.wrQLenPdf::16            19016                       # What write queue length does an incoming req see (Count)
board.memory.mem_ctrl0.wrQLenPdf::17            19681                       # What write queue length does an incoming req see (Count)
board.memory.mem_ctrl0.wrQLenPdf::18            19681                       # What write queue length does an incoming req see (Count)
board.memory.mem_ctrl0.wrQLenPdf::19            19681                       # What write queue length does an incoming req see (Count)
board.memory.mem_ctrl0.wrQLenPdf::20            19681                       # What write queue length does an incoming req see (Count)
board.memory.mem_ctrl0.wrQLenPdf::21            19681                       # What write queue length does an incoming req see (Count)
board.memory.mem_ctrl0.wrQLenPdf::22            19681                       # What write queue length does an incoming req see (Count)
board.memory.mem_ctrl0.wrQLenPdf::23            19681                       # What write queue length does an incoming req see (Count)
board.memory.mem_ctrl0.wrQLenPdf::24            19681                       # What write queue length does an incoming req see (Count)
board.memory.mem_ctrl0.wrQLenPdf::25            19681                       # What write queue length does an incoming req see (Count)
board.memory.mem_ctrl0.wrQLenPdf::26            19681                       # What write queue length does an incoming req see (Count)
board.memory.mem_ctrl0.wrQLenPdf::27            19681                       # What write queue length does an incoming req see (Count)
board.memory.mem_ctrl0.wrQLenPdf::28            19680                       # What write queue length does an incoming req see (Count)
board.memory.mem_ctrl0.wrQLenPdf::29            19680                       # What write queue length does an incoming req see (Count)
board.memory.mem_ctrl0.wrQLenPdf::30            19680                       # What write queue length does an incoming req see (Count)
board.memory.mem_ctrl0.wrQLenPdf::31            19680                       # What write queue length does an incoming req see (Count)
board.memory.mem_ctrl0.wrQLenPdf::32            19680                       # What write queue length does an incoming req see (Count)
board.memory.mem_ctrl0.wrQLenPdf::33                0                       # What write queue length does an incoming req see (Count)
board.memory.mem_ctrl0.wrQLenPdf::34                0                       # What write queue length does an incoming req see (Count)
board.memory.mem_ctrl0.wrQLenPdf::35                0                       # What write queue length does an incoming req see (Count)
board.memory.mem_ctrl0.wrQLenPdf::36                0                       # What write queue length does an incoming req see (Count)
board.memory.mem_ctrl0.wrQLenPdf::37                0                       # What write queue length does an incoming req see (Count)
board.memory.mem_ctrl0.wrQLenPdf::38                0                       # What write queue length does an incoming req see (Count)
board.memory.mem_ctrl0.wrQLenPdf::39                0                       # What write queue length does an incoming req see (Count)
board.memory.mem_ctrl0.wrQLenPdf::40                0                       # What write queue length does an incoming req see (Count)
board.memory.mem_ctrl0.wrQLenPdf::41                0                       # What write queue length does an incoming req see (Count)
board.memory.mem_ctrl0.wrQLenPdf::42                0                       # What write queue length does an incoming req see (Count)
board.memory.mem_ctrl0.wrQLenPdf::43                0                       # What write queue length does an incoming req see (Count)
board.memory.mem_ctrl0.wrQLenPdf::44                0                       # What write queue length does an incoming req see (Count)
board.memory.mem_ctrl0.wrQLenPdf::45                0                       # What write queue length does an incoming req see (Count)
board.memory.mem_ctrl0.wrQLenPdf::46                0                       # What write queue length does an incoming req see (Count)
board.memory.mem_ctrl0.wrQLenPdf::47                0                       # What write queue length does an incoming req see (Count)
board.memory.mem_ctrl0.wrQLenPdf::48                0                       # What write queue length does an incoming req see (Count)
board.memory.mem_ctrl0.wrQLenPdf::49                0                       # What write queue length does an incoming req see (Count)
board.memory.mem_ctrl0.wrQLenPdf::50                0                       # What write queue length does an incoming req see (Count)
board.memory.mem_ctrl0.wrQLenPdf::51                0                       # What write queue length does an incoming req see (Count)
board.memory.mem_ctrl0.wrQLenPdf::52                0                       # What write queue length does an incoming req see (Count)
board.memory.mem_ctrl0.wrQLenPdf::53                0                       # What write queue length does an incoming req see (Count)
board.memory.mem_ctrl0.wrQLenPdf::54                0                       # What write queue length does an incoming req see (Count)
board.memory.mem_ctrl0.wrQLenPdf::55                0                       # What write queue length does an incoming req see (Count)
board.memory.mem_ctrl0.wrQLenPdf::56                0                       # What write queue length does an incoming req see (Count)
board.memory.mem_ctrl0.wrQLenPdf::57                0                       # What write queue length does an incoming req see (Count)
board.memory.mem_ctrl0.wrQLenPdf::58                0                       # What write queue length does an incoming req see (Count)
board.memory.mem_ctrl0.wrQLenPdf::59                0                       # What write queue length does an incoming req see (Count)
board.memory.mem_ctrl0.wrQLenPdf::60                0                       # What write queue length does an incoming req see (Count)
board.memory.mem_ctrl0.wrQLenPdf::61                0                       # What write queue length does an incoming req see (Count)
board.memory.mem_ctrl0.wrQLenPdf::62                0                       # What write queue length does an incoming req see (Count)
board.memory.mem_ctrl0.wrQLenPdf::63                0                       # What write queue length does an incoming req see (Count)
board.memory.mem_ctrl0.rdPerTurnAround::samples        19680                       # Reads before turning the bus around for writes (Count)
board.memory.mem_ctrl0.rdPerTurnAround::mean  1593.932978                       # Reads before turning the bus around for writes (Count)
board.memory.mem_ctrl0.rdPerTurnAround::gmean   453.561720                       # Reads before turning the bus around for writes (Count)
board.memory.mem_ctrl0.rdPerTurnAround::stdev 32317.385805                       # Reads before turning the bus around for writes (Count)
board.memory.mem_ctrl0.rdPerTurnAround::0-262143        19679     99.99%     99.99% # Reads before turning the bus around for writes (Count)
board.memory.mem_ctrl0.rdPerTurnAround::4.45645e+06-4.71859e+06            1      0.01%    100.00% # Reads before turning the bus around for writes (Count)
board.memory.mem_ctrl0.rdPerTurnAround::total        19680                       # Reads before turning the bus around for writes (Count)
board.memory.mem_ctrl0.wrPerTurnAround::samples        19680                       # Writes before turning the bus around for reads (Count)
board.memory.mem_ctrl0.wrPerTurnAround::mean    17.931453                       # Writes before turning the bus around for reads (Count)
board.memory.mem_ctrl0.wrPerTurnAround::gmean    17.927514                       # Writes before turning the bus around for reads (Count)
board.memory.mem_ctrl0.wrPerTurnAround::stdev     0.362541                       # Writes before turning the bus around for reads (Count)
board.memory.mem_ctrl0.wrPerTurnAround::16          665      3.38%      3.38% # Writes before turning the bus around for reads (Count)
board.memory.mem_ctrl0.wrPerTurnAround::17           19      0.10%      3.48% # Writes before turning the bus around for reads (Count)
board.memory.mem_ctrl0.wrPerTurnAround::18        18996     96.52%    100.00% # Writes before turning the bus around for reads (Count)
board.memory.mem_ctrl0.wrPerTurnAround::total        19680                       # Writes before turning the bus around for reads (Count)
board.memory.mem_ctrl0.bytesReadWrQ              4544                       # Total number of bytes read from write queue (Byte)
board.memory.mem_ctrl0.bytesReadSys         123977935                       # Total read bytes from the system interface side (Byte)
board.memory.mem_ctrl0.bytesWrittenSys        1566634                       # Total written bytes from the system interface side (Byte)
board.memory.mem_ctrl0.avgRdBWSys        33285083.79882520                       # Average system read bandwidth in Byte/s ((Byte/Second))
board.memory.mem_ctrl0.avgWrBWSys        420603.42408582                       # Average system write bandwidth in Byte/s ((Byte/Second))
board.memory.mem_ctrl0.totGap            3724728739000                       # Total gap between requests (Tick)
board.memory.mem_ctrl0.avgGap               113107.17                       # Average gap between requests ((Tick/Count))
board.memory.mem_ctrl0.requestorReadBytes::processor.cores.core.inst    123472316                       # Per-requestor bytes read from memory (Byte)
board.memory.mem_ctrl0.requestorReadBytes::processor.cores.core.data       505206                       # Per-requestor bytes read from memory (Byte)
board.memory.mem_ctrl0.requestorWriteBytes::processor.cores.core.data       353714                       # Per-requestor bytes write to memory (Byte)
board.memory.mem_ctrl0.requestorReadRate::processor.cores.core.inst 33149337.298568703234                       # Per-requestor bytes read from memory rate ((Byte/Second))
board.memory.mem_ctrl0.requestorReadRate::processor.cores.core.data 135635.619722729578                       # Per-requestor bytes read from memory rate ((Byte/Second))
board.memory.mem_ctrl0.requestorWriteRate::processor.cores.core.data 94963.673421546016                       # Per-requestor bytes write to memory rate ((Byte/Second))
board.memory.mem_ctrl0.requestorReadAccesses::processor.cores.core.inst     30868079                       # Per-requestor read serviced memory accesses (Count)
board.memory.mem_ctrl0.requestorReadAccesses::processor.cores.core.data       501089                       # Per-requestor read serviced memory accesses (Count)
board.memory.mem_ctrl0.requestorWriteAccesses::processor.cores.core.data      1561801                       # Per-requestor write serviced memory accesses (Count)
board.memory.mem_ctrl0.requestorReadTotalLat::processor.cores.core.inst 666758226750                       # Per-requestor read total memory access latency (Tick)
board.memory.mem_ctrl0.requestorReadTotalLat::processor.cores.core.data  12077818750                       # Per-requestor read total memory access latency (Tick)
board.memory.mem_ctrl0.requestorWriteTotalLat::processor.cores.core.data 67374527505250                       # Per-requestor write total memory access latency (Tick)
board.memory.mem_ctrl0.requestorReadAvgLat::processor.cores.core.inst     21600.25                       # Per-requestor read average memory access latency ((Tick/Count))
board.memory.mem_ctrl0.requestorReadAvgLat::processor.cores.core.data     24103.14                       # Per-requestor read average memory access latency ((Tick/Count))
board.memory.mem_ctrl0.requestorWriteAvgLat::processor.cores.core.data  43138996.26                       # Per-requestor write average memory access latency ((Tick/Count))
board.memory.mem_ctrl0.dram.bytesRead::processor.cores.core.inst    123472316                       # Number of bytes read from this memory (Byte)
board.memory.mem_ctrl0.dram.bytesRead::processor.cores.core.data       505619                       # Number of bytes read from this memory (Byte)
board.memory.mem_ctrl0.dram.bytesRead::total    123977935                       # Number of bytes read from this memory (Byte)
board.memory.mem_ctrl0.dram.bytesInstRead::processor.cores.core.inst    123472316                       # Number of instructions bytes read from this memory (Byte)
board.memory.mem_ctrl0.dram.bytesInstRead::total    123472316                       # Number of instructions bytes read from this memory (Byte)
board.memory.mem_ctrl0.dram.bytesWritten::processor.cores.core.data      1566566                       # Number of bytes written to this memory (Byte)
board.memory.mem_ctrl0.dram.bytesWritten::total      1566566                       # Number of bytes written to this memory (Byte)
board.memory.mem_ctrl0.dram.numReads::processor.cores.core.inst     30868079                       # Number of read requests responded to by this memory (Count)
board.memory.mem_ctrl0.dram.numReads::processor.cores.core.data       501089                       # Number of read requests responded to by this memory (Count)
board.memory.mem_ctrl0.dram.numReads::total     31369168                       # Number of read requests responded to by this memory (Count)
board.memory.mem_ctrl0.dram.numWrites::processor.cores.core.data      1561787                       # Number of write requests responded to by this memory (Count)
board.memory.mem_ctrl0.dram.numWrites::total      1561787                       # Number of write requests responded to by this memory (Count)
board.memory.mem_ctrl0.dram.bwRead::processor.cores.core.inst     33149337                       # Total read bandwidth from this memory ((Byte/Second))
board.memory.mem_ctrl0.dram.bwRead::processor.cores.core.data       135747                       # Total read bandwidth from this memory ((Byte/Second))
board.memory.mem_ctrl0.dram.bwRead::total     33285084                       # Total read bandwidth from this memory ((Byte/Second))
board.memory.mem_ctrl0.dram.bwInstRead::processor.cores.core.inst     33149337                       # Instruction read bandwidth from this memory ((Byte/Second))
board.memory.mem_ctrl0.dram.bwInstRead::total     33149337                       # Instruction read bandwidth from this memory ((Byte/Second))
board.memory.mem_ctrl0.dram.bwWrite::processor.cores.core.data       420585                       # Write bandwidth from this memory ((Byte/Second))
board.memory.mem_ctrl0.dram.bwWrite::total       420585                       # Write bandwidth from this memory ((Byte/Second))
board.memory.mem_ctrl0.dram.bwTotal::processor.cores.core.inst     33149337                       # Total bandwidth to/from this memory ((Byte/Second))
board.memory.mem_ctrl0.dram.bwTotal::processor.cores.core.data       556332                       # Total bandwidth to/from this memory ((Byte/Second))
board.memory.mem_ctrl0.dram.bwTotal::total     33705669                       # Total bandwidth to/from this memory ((Byte/Second))
board.memory.mem_ctrl0.dram.readBursts       31369097                       # Number of DRAM read bursts (Count)
board.memory.mem_ctrl0.dram.writeBursts        352891                       # Number of DRAM write bursts (Count)
board.memory.mem_ctrl0.dram.perBankRdBursts::0     30895874                       # Per bank write bursts (Count)
board.memory.mem_ctrl0.dram.perBankRdBursts::1        24787                       # Per bank write bursts (Count)
board.memory.mem_ctrl0.dram.perBankRdBursts::2        24963                       # Per bank write bursts (Count)
board.memory.mem_ctrl0.dram.perBankRdBursts::3        27421                       # Per bank write bursts (Count)
board.memory.mem_ctrl0.dram.perBankRdBursts::4        33120                       # Per bank write bursts (Count)
board.memory.mem_ctrl0.dram.perBankRdBursts::5        33606                       # Per bank write bursts (Count)
board.memory.mem_ctrl0.dram.perBankRdBursts::6        33396                       # Per bank write bursts (Count)
board.memory.mem_ctrl0.dram.perBankRdBursts::7        32917                       # Per bank write bursts (Count)
board.memory.mem_ctrl0.dram.perBankRdBursts::8        32933                       # Per bank write bursts (Count)
board.memory.mem_ctrl0.dram.perBankRdBursts::9        33355                       # Per bank write bursts (Count)
board.memory.mem_ctrl0.dram.perBankRdBursts::10        32768                       # Per bank write bursts (Count)
board.memory.mem_ctrl0.dram.perBankRdBursts::11        32768                       # Per bank write bursts (Count)
board.memory.mem_ctrl0.dram.perBankRdBursts::12        32811                       # Per bank write bursts (Count)
board.memory.mem_ctrl0.dram.perBankRdBursts::13        32768                       # Per bank write bursts (Count)
board.memory.mem_ctrl0.dram.perBankRdBursts::14        32799                       # Per bank write bursts (Count)
board.memory.mem_ctrl0.dram.perBankRdBursts::15        32811                       # Per bank write bursts (Count)
board.memory.mem_ctrl0.dram.perBankWrBursts::0        22762                       # Per bank write bursts (Count)
board.memory.mem_ctrl0.dram.perBankWrBursts::1        17777                       # Per bank write bursts (Count)
board.memory.mem_ctrl0.dram.perBankWrBursts::2        17874                       # Per bank write bursts (Count)
board.memory.mem_ctrl0.dram.perBankWrBursts::3        18301                       # Per bank write bursts (Count)
board.memory.mem_ctrl0.dram.perBankWrBursts::4        21303                       # Per bank write bursts (Count)
board.memory.mem_ctrl0.dram.perBankWrBursts::5        21982                       # Per bank write bursts (Count)
board.memory.mem_ctrl0.dram.perBankWrBursts::6        22402                       # Per bank write bursts (Count)
board.memory.mem_ctrl0.dram.perBankWrBursts::7        22753                       # Per bank write bursts (Count)
board.memory.mem_ctrl0.dram.perBankWrBursts::8        23006                       # Per bank write bursts (Count)
board.memory.mem_ctrl0.dram.perBankWrBursts::9        23063                       # Per bank write bursts (Count)
board.memory.mem_ctrl0.dram.perBankWrBursts::10        23278                       # Per bank write bursts (Count)
board.memory.mem_ctrl0.dram.perBankWrBursts::11        23439                       # Per bank write bursts (Count)
board.memory.mem_ctrl0.dram.perBankWrBursts::12        23565                       # Per bank write bursts (Count)
board.memory.mem_ctrl0.dram.perBankWrBursts::13        23667                       # Per bank write bursts (Count)
board.memory.mem_ctrl0.dram.perBankWrBursts::14        23841                       # Per bank write bursts (Count)
board.memory.mem_ctrl0.dram.perBankWrBursts::15        23878                       # Per bank write bursts (Count)
board.memory.mem_ctrl0.dram.totQLat       90665476750                       # Total ticks spent queuing (Tick)
board.memory.mem_ctrl0.dram.totBusLat    156845485000                       # Total ticks spent in databus transfers (Tick)
board.memory.mem_ctrl0.dram.totMemAccLat 678836045500                       # Total ticks spent from burst creation until serviced by the DRAM (Tick)
board.memory.mem_ctrl0.dram.avgQLat           2890.28                       # Average queueing delay per DRAM burst ((Tick/Count))
board.memory.mem_ctrl0.dram.avgBusLat         5000.00                       # Average bus latency per DRAM burst ((Tick/Count))
board.memory.mem_ctrl0.dram.avgMemAccLat     21640.28                       # Average memory access latency per DRAM burst ((Tick/Count))
board.memory.mem_ctrl0.dram.readRowHits      29190370                       # Number of row buffer hits during reads (Count)
board.memory.mem_ctrl0.dram.writeRowHits       312490                       # Number of row buffer hits during writes (Count)
board.memory.mem_ctrl0.dram.readRowHitRate        93.05                       # Row buffer hit rate for reads (Ratio)
board.memory.mem_ctrl0.dram.writeRowHitRate        88.55                       # Row buffer hit rate for writes (Ratio)
board.memory.mem_ctrl0.dram.bytesPerActivate::samples      2219124                       # Bytes accessed per row activation (Byte)
board.memory.mem_ctrl0.dram.bytesPerActivate::mean   914.868274                       # Bytes accessed per row activation (Byte)
board.memory.mem_ctrl0.dram.bytesPerActivate::gmean   809.450247                       # Bytes accessed per row activation (Byte)
board.memory.mem_ctrl0.dram.bytesPerActivate::stdev   258.569086                       # Bytes accessed per row activation (Byte)
board.memory.mem_ctrl0.dram.bytesPerActivate::0-127       119643      5.39%      5.39% # Bytes accessed per row activation (Byte)
board.memory.mem_ctrl0.dram.bytesPerActivate::128-255        21408      0.96%      6.36% # Bytes accessed per row activation (Byte)
board.memory.mem_ctrl0.dram.bytesPerActivate::256-383        36303      1.64%      7.99% # Bytes accessed per row activation (Byte)
board.memory.mem_ctrl0.dram.bytesPerActivate::384-511        27210      1.23%      9.22% # Bytes accessed per row activation (Byte)
board.memory.mem_ctrl0.dram.bytesPerActivate::512-639        36621      1.65%     10.87% # Bytes accessed per row activation (Byte)
board.memory.mem_ctrl0.dram.bytesPerActivate::640-767         5766      0.26%     11.13% # Bytes accessed per row activation (Byte)
board.memory.mem_ctrl0.dram.bytesPerActivate::768-895       112663      5.08%     16.21% # Bytes accessed per row activation (Byte)
board.memory.mem_ctrl0.dram.bytesPerActivate::896-1023       209378      9.44%     25.64% # Bytes accessed per row activation (Byte)
board.memory.mem_ctrl0.dram.bytesPerActivate::1024-1151      1650132     74.36%    100.00% # Bytes accessed per row activation (Byte)
board.memory.mem_ctrl0.dram.bytesPerActivate::total      2219124                       # Bytes accessed per row activation (Byte)
board.memory.mem_ctrl0.dram.bytesRead      2007622208                       # Total bytes read (Byte)
board.memory.mem_ctrl0.dram.bytesWritten     22585024                       # Total bytes written (Byte)
board.memory.mem_ctrl0.dram.avgRdBW        538.998116                       # Average DRAM read bandwidth in MiBytes/s ((Byte/Second))
board.memory.mem_ctrl0.dram.avgWrBW          6.063534                       # Average DRAM write bandwidth in MiBytes/s ((Byte/Second))
board.memory.mem_ctrl0.dram.peakBW           12800.00                       # Theoretical peak bandwidth in MiByte/s ((Byte/Second))
board.memory.mem_ctrl0.dram.busUtil              4.26                       # Data bus utilization in percentage (Ratio)
board.memory.mem_ctrl0.dram.busUtilRead          4.21                       # Data bus utilization in percentage for reads (Ratio)
board.memory.mem_ctrl0.dram.busUtilWrite         0.05                       # Data bus utilization in percentage for writes (Ratio)
board.memory.mem_ctrl0.dram.pageHitRate         93.00                       # Row buffer hit rate, read and write combined (Ratio)
board.memory.mem_ctrl0.dram.power_state.pwrStateResidencyTicks::UNDEFINED 3724729544000                       # Cumulative time (in ticks) in various power states (Tick)
board.memory.mem_ctrl0.dram.rank0.actEnergy  15421029120                       # Energy for activate commands per rank (pJ) (Joule)
board.memory.mem_ctrl0.dram.rank0.preEnergy   8196456180                       # Energy for precharge commands per rank (pJ) (Joule)
board.memory.mem_ctrl0.dram.rank0.readEnergy 222097439760                       # Energy for read commands per rank (pJ) (Joule)
board.memory.mem_ctrl0.dram.rank0.writeEnergy    862103880                       # Energy for write commands per rank (pJ) (Joule)
board.memory.mem_ctrl0.dram.rank0.refreshEnergy 294026566080.000061                       # Energy for refresh commands per rank (pJ) (Joule)
board.memory.mem_ctrl0.dram.rank0.actBackEnergy 1586027273730                       # Energy for active background per rank (pJ) (Joule)
board.memory.mem_ctrl0.dram.rank0.preBackEnergy  94694230560                       # Energy for precharge background per rank (pJ) (Joule)
board.memory.mem_ctrl0.dram.rank0.actPowerDownEnergy            0                       # Energy for active power-down per rank (pJ) (Joule)
board.memory.mem_ctrl0.dram.rank0.prePowerDownEnergy            0                       # Energy for precharge power-down per rank (pJ) (Joule)
board.memory.mem_ctrl0.dram.rank0.selfRefreshEnergy            0                       # Energy for self refresh per rank (pJ) (Joule)
board.memory.mem_ctrl0.dram.rank0.totalEnergy 2221325099310                       # Total energy per rank (pJ) (Joule)
board.memory.mem_ctrl0.dram.rank0.averagePower   596.372186                       # Core power per rank (mW) (Watt)
board.memory.mem_ctrl0.dram.rank0.totalIdleTime            0                       # Total Idle time Per DRAM Rank (Tick)
board.memory.mem_ctrl0.dram.rank0.pwrStateTime::IDLE 211427377250                       # Time in different power states (Tick)
board.memory.mem_ctrl0.dram.rank0.pwrStateTime::REF 124376720000                       # Time in different power states (Tick)
board.memory.mem_ctrl0.dram.rank0.pwrStateTime::SREF            0                       # Time in different power states (Tick)
board.memory.mem_ctrl0.dram.rank0.pwrStateTime::PRE_PDN            0                       # Time in different power states (Tick)
board.memory.mem_ctrl0.dram.rank0.pwrStateTime::ACT 3388925446750                       # Time in different power states (Tick)
board.memory.mem_ctrl0.dram.rank0.pwrStateTime::ACT_PDN            0                       # Time in different power states (Tick)
board.memory.mem_ctrl0.dram.rank1.actEnergy    423544800                       # Energy for activate commands per rank (pJ) (Joule)
board.memory.mem_ctrl0.dram.rank1.preEnergy    225119400                       # Energy for precharge commands per rank (pJ) (Joule)
board.memory.mem_ctrl0.dram.rank1.readEnergy   1877912820                       # Energy for read commands per rank (pJ) (Joule)
board.memory.mem_ctrl0.dram.rank1.writeEnergy    979987140                       # Energy for write commands per rank (pJ) (Joule)
board.memory.mem_ctrl0.dram.rank1.refreshEnergy 294026566080.000061                       # Energy for refresh commands per rank (pJ) (Joule)
board.memory.mem_ctrl0.dram.rank1.actBackEnergy 187915809060                       # Energy for active background per rank (pJ) (Joule)
board.memory.mem_ctrl0.dram.rank1.preBackEnergy 1272051253440                       # Energy for precharge background per rank (pJ) (Joule)
board.memory.mem_ctrl0.dram.rank1.actPowerDownEnergy            0                       # Energy for active power-down per rank (pJ) (Joule)
board.memory.mem_ctrl0.dram.rank1.prePowerDownEnergy            0                       # Energy for precharge power-down per rank (pJ) (Joule)
board.memory.mem_ctrl0.dram.rank1.selfRefreshEnergy            0                       # Energy for self refresh per rank (pJ) (Joule)
board.memory.mem_ctrl0.dram.rank1.totalEnergy 1757500192740                       # Total energy per rank (pJ) (Joule)
board.memory.mem_ctrl0.dram.rank1.averagePower   471.846391                       # Core power per rank (mW) (Watt)
board.memory.mem_ctrl0.dram.rank1.totalIdleTime            0                       # Total Idle time Per DRAM Rank (Tick)
board.memory.mem_ctrl0.dram.rank1.pwrStateTime::IDLE 3305288616250                       # Time in different power states (Tick)
board.memory.mem_ctrl0.dram.rank1.pwrStateTime::REF 124376720000                       # Time in different power states (Tick)
board.memory.mem_ctrl0.dram.rank1.pwrStateTime::SREF            0                       # Time in different power states (Tick)
board.memory.mem_ctrl0.dram.rank1.pwrStateTime::PRE_PDN            0                       # Time in different power states (Tick)
board.memory.mem_ctrl0.dram.rank1.pwrStateTime::ACT 295064207750                       # Time in different power states (Tick)
board.memory.mem_ctrl0.dram.rank1.pwrStateTime::ACT_PDN            0                       # Time in different power states (Tick)
board.memory.mem_ctrl0.power_state.pwrStateResidencyTicks::UNDEFINED 3724729544000                       # Cumulative time (in ticks) in various power states (Tick)
board.memory.mem_ctrl1.avgPriority_processor.cores.core.inst::samples  19861959.00                       # Average QoS priority value for accepted requests (Count)
board.memory.mem_ctrl1.avgPriority_processor.cores.core.data::samples  14349267.00                       # Average QoS priority value for accepted requests (Count)
board.memory.mem_ctrl1.priorityMinLatency 0.000000018750                       # per QoS priority minimum request to response latency (Second)
board.memory.mem_ctrl1.priorityMaxLatency 2.053520704750                       # per QoS priority maximum request to response latency (Second)
board.memory.mem_ctrl1.numReadWriteTurnArounds        23412                       # Number of turnarounds from READ to WRITE (Count)
board.memory.mem_ctrl1.numWriteReadTurnArounds        23412                       # Number of turnarounds from WRITE to READ (Count)
board.memory.mem_ctrl1.numStayReadState      74367499                       # Number of times bus staying in READ state (Count)
board.memory.mem_ctrl1.numStayWriteState       352681                       # Number of times bus staying in WRITE state (Count)
board.memory.mem_ctrl1.readReqs              43179378                       # Number of read requests accepted (Count)
board.memory.mem_ctrl1.writeReqs              5763443                       # Number of write requests accepted (Count)
board.memory.mem_ctrl1.readBursts            43179378                       # Number of controller read bursts, including those serviced by the write queue (Count)
board.memory.mem_ctrl1.writeBursts            5763443                       # Number of controller write bursts, including those merged in the write queue (Count)
board.memory.mem_ctrl1.servicedByWrQ          9343926                       # Number of controller read bursts serviced by the write queue (Count)
board.memory.mem_ctrl1.mergedWrBursts         5387669                       # Number of controller write bursts merged with an existing one (Count)
board.memory.mem_ctrl1.neitherReadNorWriteReqs            0                       # Number of requests that are neither read nor write (Count)
board.memory.mem_ctrl1.avgRdQLen                 1.00                       # Average read queue length when enqueuing ((Count/Tick))
board.memory.mem_ctrl1.avgWrQLen                26.23                       # Average write queue length when enqueuing ((Count/Tick))
board.memory.mem_ctrl1.numRdRetry                   0                       # Number of times read queue was full causing retry (Count)
board.memory.mem_ctrl1.numWrRetry                   0                       # Number of times write queue was full causing retry (Count)
board.memory.mem_ctrl1.readPktSize::0          500561                       # Read request sizes (log2) (Count)
board.memory.mem_ctrl1.readPktSize::1              10                       # Read request sizes (log2) (Count)
board.memory.mem_ctrl1.readPktSize::2        38555302                       # Read request sizes (log2) (Count)
board.memory.mem_ctrl1.readPktSize::3         4123350                       # Read request sizes (log2) (Count)
board.memory.mem_ctrl1.readPktSize::4             155                       # Read request sizes (log2) (Count)
board.memory.mem_ctrl1.readPktSize::5               0                       # Read request sizes (log2) (Count)
board.memory.mem_ctrl1.readPktSize::6               0                       # Read request sizes (log2) (Count)
board.memory.mem_ctrl1.writePktSize::0        1560983                       # Write request sizes (log2) (Count)
board.memory.mem_ctrl1.writePktSize::1              1                       # Write request sizes (log2) (Count)
board.memory.mem_ctrl1.writePktSize::2        4201769                       # Write request sizes (log2) (Count)
board.memory.mem_ctrl1.writePktSize::3            687                       # Write request sizes (log2) (Count)
board.memory.mem_ctrl1.writePktSize::4              0                       # Write request sizes (log2) (Count)
board.memory.mem_ctrl1.writePktSize::5              0                       # Write request sizes (log2) (Count)
board.memory.mem_ctrl1.writePktSize::6              3                       # Write request sizes (log2) (Count)
board.memory.mem_ctrl1.rdQLenPdf::0          33835452                       # What read queue length does an incoming req see (Count)
board.memory.mem_ctrl1.rdQLenPdf::1                 0                       # What read queue length does an incoming req see (Count)
board.memory.mem_ctrl1.rdQLenPdf::2                 0                       # What read queue length does an incoming req see (Count)
board.memory.mem_ctrl1.rdQLenPdf::3                 0                       # What read queue length does an incoming req see (Count)
board.memory.mem_ctrl1.rdQLenPdf::4                 0                       # What read queue length does an incoming req see (Count)
board.memory.mem_ctrl1.rdQLenPdf::5                 0                       # What read queue length does an incoming req see (Count)
board.memory.mem_ctrl1.rdQLenPdf::6                 0                       # What read queue length does an incoming req see (Count)
board.memory.mem_ctrl1.rdQLenPdf::7                 0                       # What read queue length does an incoming req see (Count)
board.memory.mem_ctrl1.rdQLenPdf::8                 0                       # What read queue length does an incoming req see (Count)
board.memory.mem_ctrl1.rdQLenPdf::9                 0                       # What read queue length does an incoming req see (Count)
board.memory.mem_ctrl1.rdQLenPdf::10                0                       # What read queue length does an incoming req see (Count)
board.memory.mem_ctrl1.rdQLenPdf::11                0                       # What read queue length does an incoming req see (Count)
board.memory.mem_ctrl1.rdQLenPdf::12                0                       # What read queue length does an incoming req see (Count)
board.memory.mem_ctrl1.rdQLenPdf::13                0                       # What read queue length does an incoming req see (Count)
board.memory.mem_ctrl1.rdQLenPdf::14                0                       # What read queue length does an incoming req see (Count)
board.memory.mem_ctrl1.rdQLenPdf::15                0                       # What read queue length does an incoming req see (Count)
board.memory.mem_ctrl1.rdQLenPdf::16                0                       # What read queue length does an incoming req see (Count)
board.memory.mem_ctrl1.rdQLenPdf::17                0                       # What read queue length does an incoming req see (Count)
board.memory.mem_ctrl1.rdQLenPdf::18                0                       # What read queue length does an incoming req see (Count)
board.memory.mem_ctrl1.rdQLenPdf::19                0                       # What read queue length does an incoming req see (Count)
board.memory.mem_ctrl1.rdQLenPdf::20                0                       # What read queue length does an incoming req see (Count)
board.memory.mem_ctrl1.rdQLenPdf::21                0                       # What read queue length does an incoming req see (Count)
board.memory.mem_ctrl1.rdQLenPdf::22                0                       # What read queue length does an incoming req see (Count)
board.memory.mem_ctrl1.rdQLenPdf::23                0                       # What read queue length does an incoming req see (Count)
board.memory.mem_ctrl1.rdQLenPdf::24                0                       # What read queue length does an incoming req see (Count)
board.memory.mem_ctrl1.rdQLenPdf::25                0                       # What read queue length does an incoming req see (Count)
board.memory.mem_ctrl1.rdQLenPdf::26                0                       # What read queue length does an incoming req see (Count)
board.memory.mem_ctrl1.rdQLenPdf::27                0                       # What read queue length does an incoming req see (Count)
board.memory.mem_ctrl1.rdQLenPdf::28                0                       # What read queue length does an incoming req see (Count)
board.memory.mem_ctrl1.rdQLenPdf::29                0                       # What read queue length does an incoming req see (Count)
board.memory.mem_ctrl1.rdQLenPdf::30                0                       # What read queue length does an incoming req see (Count)
board.memory.mem_ctrl1.rdQLenPdf::31                0                       # What read queue length does an incoming req see (Count)
board.memory.mem_ctrl1.wrQLenPdf::0                 1                       # What write queue length does an incoming req see (Count)
board.memory.mem_ctrl1.wrQLenPdf::1                 1                       # What write queue length does an incoming req see (Count)
board.memory.mem_ctrl1.wrQLenPdf::2                 1                       # What write queue length does an incoming req see (Count)
board.memory.mem_ctrl1.wrQLenPdf::3                 1                       # What write queue length does an incoming req see (Count)
board.memory.mem_ctrl1.wrQLenPdf::4                 1                       # What write queue length does an incoming req see (Count)
board.memory.mem_ctrl1.wrQLenPdf::5                 1                       # What write queue length does an incoming req see (Count)
board.memory.mem_ctrl1.wrQLenPdf::6                 1                       # What write queue length does an incoming req see (Count)
board.memory.mem_ctrl1.wrQLenPdf::7                 1                       # What write queue length does an incoming req see (Count)
board.memory.mem_ctrl1.wrQLenPdf::8                 1                       # What write queue length does an incoming req see (Count)
board.memory.mem_ctrl1.wrQLenPdf::9                 1                       # What write queue length does an incoming req see (Count)
board.memory.mem_ctrl1.wrQLenPdf::10                1                       # What write queue length does an incoming req see (Count)
board.memory.mem_ctrl1.wrQLenPdf::11                1                       # What write queue length does an incoming req see (Count)
board.memory.mem_ctrl1.wrQLenPdf::12                1                       # What write queue length does an incoming req see (Count)
board.memory.mem_ctrl1.wrQLenPdf::13                1                       # What write queue length does an incoming req see (Count)
board.memory.mem_ctrl1.wrQLenPdf::14                1                       # What write queue length does an incoming req see (Count)
board.memory.mem_ctrl1.wrQLenPdf::15              578                       # What write queue length does an incoming req see (Count)
board.memory.mem_ctrl1.wrQLenPdf::16              578                       # What write queue length does an incoming req see (Count)
board.memory.mem_ctrl1.wrQLenPdf::17            23413                       # What write queue length does an incoming req see (Count)
board.memory.mem_ctrl1.wrQLenPdf::18            23413                       # What write queue length does an incoming req see (Count)
board.memory.mem_ctrl1.wrQLenPdf::19            23413                       # What write queue length does an incoming req see (Count)
board.memory.mem_ctrl1.wrQLenPdf::20            23413                       # What write queue length does an incoming req see (Count)
board.memory.mem_ctrl1.wrQLenPdf::21            23413                       # What write queue length does an incoming req see (Count)
board.memory.mem_ctrl1.wrQLenPdf::22            23413                       # What write queue length does an incoming req see (Count)
board.memory.mem_ctrl1.wrQLenPdf::23            23413                       # What write queue length does an incoming req see (Count)
board.memory.mem_ctrl1.wrQLenPdf::24            23413                       # What write queue length does an incoming req see (Count)
board.memory.mem_ctrl1.wrQLenPdf::25            23413                       # What write queue length does an incoming req see (Count)
board.memory.mem_ctrl1.wrQLenPdf::26            23414                       # What write queue length does an incoming req see (Count)
board.memory.mem_ctrl1.wrQLenPdf::27            23412                       # What write queue length does an incoming req see (Count)
board.memory.mem_ctrl1.wrQLenPdf::28            23412                       # What write queue length does an incoming req see (Count)
board.memory.mem_ctrl1.wrQLenPdf::29            23412                       # What write queue length does an incoming req see (Count)
board.memory.mem_ctrl1.wrQLenPdf::30            23412                       # What write queue length does an incoming req see (Count)
board.memory.mem_ctrl1.wrQLenPdf::31            23412                       # What write queue length does an incoming req see (Count)
board.memory.mem_ctrl1.wrQLenPdf::32            23412                       # What write queue length does an incoming req see (Count)
board.memory.mem_ctrl1.wrQLenPdf::33                0                       # What write queue length does an incoming req see (Count)
board.memory.mem_ctrl1.wrQLenPdf::34                0                       # What write queue length does an incoming req see (Count)
board.memory.mem_ctrl1.wrQLenPdf::35                0                       # What write queue length does an incoming req see (Count)
board.memory.mem_ctrl1.wrQLenPdf::36                0                       # What write queue length does an incoming req see (Count)
board.memory.mem_ctrl1.wrQLenPdf::37                0                       # What write queue length does an incoming req see (Count)
board.memory.mem_ctrl1.wrQLenPdf::38                0                       # What write queue length does an incoming req see (Count)
board.memory.mem_ctrl1.wrQLenPdf::39                0                       # What write queue length does an incoming req see (Count)
board.memory.mem_ctrl1.wrQLenPdf::40                0                       # What write queue length does an incoming req see (Count)
board.memory.mem_ctrl1.wrQLenPdf::41                0                       # What write queue length does an incoming req see (Count)
board.memory.mem_ctrl1.wrQLenPdf::42                0                       # What write queue length does an incoming req see (Count)
board.memory.mem_ctrl1.wrQLenPdf::43                0                       # What write queue length does an incoming req see (Count)
board.memory.mem_ctrl1.wrQLenPdf::44                0                       # What write queue length does an incoming req see (Count)
board.memory.mem_ctrl1.wrQLenPdf::45                0                       # What write queue length does an incoming req see (Count)
board.memory.mem_ctrl1.wrQLenPdf::46                0                       # What write queue length does an incoming req see (Count)
board.memory.mem_ctrl1.wrQLenPdf::47                0                       # What write queue length does an incoming req see (Count)
board.memory.mem_ctrl1.wrQLenPdf::48                0                       # What write queue length does an incoming req see (Count)
board.memory.mem_ctrl1.wrQLenPdf::49                0                       # What write queue length does an incoming req see (Count)
board.memory.mem_ctrl1.wrQLenPdf::50                0                       # What write queue length does an incoming req see (Count)
board.memory.mem_ctrl1.wrQLenPdf::51                0                       # What write queue length does an incoming req see (Count)
board.memory.mem_ctrl1.wrQLenPdf::52                0                       # What write queue length does an incoming req see (Count)
board.memory.mem_ctrl1.wrQLenPdf::53                0                       # What write queue length does an incoming req see (Count)
board.memory.mem_ctrl1.wrQLenPdf::54                0                       # What write queue length does an incoming req see (Count)
board.memory.mem_ctrl1.wrQLenPdf::55                0                       # What write queue length does an incoming req see (Count)
board.memory.mem_ctrl1.wrQLenPdf::56                0                       # What write queue length does an incoming req see (Count)
board.memory.mem_ctrl1.wrQLenPdf::57                0                       # What write queue length does an incoming req see (Count)
board.memory.mem_ctrl1.wrQLenPdf::58                0                       # What write queue length does an incoming req see (Count)
board.memory.mem_ctrl1.wrQLenPdf::59                0                       # What write queue length does an incoming req see (Count)
board.memory.mem_ctrl1.wrQLenPdf::60                0                       # What write queue length does an incoming req see (Count)
board.memory.mem_ctrl1.wrQLenPdf::61                0                       # What write queue length does an incoming req see (Count)
board.memory.mem_ctrl1.wrQLenPdf::62                0                       # What write queue length does an incoming req see (Count)
board.memory.mem_ctrl1.wrQLenPdf::63                0                       # What write queue length does an incoming req see (Count)
board.memory.mem_ctrl1.rdPerTurnAround::samples        23412                       # Reads before turning the bus around for writes (Count)
board.memory.mem_ctrl1.rdPerTurnAround::mean  1445.199641                       # Reads before turning the bus around for writes (Count)
board.memory.mem_ctrl1.rdPerTurnAround::gmean   412.059485                       # Reads before turning the bus around for writes (Count)
board.memory.mem_ctrl1.rdPerTurnAround::stdev 96825.082957                       # Reads before turning the bus around for writes (Count)
board.memory.mem_ctrl1.rdPerTurnAround::0-524287        23411    100.00%    100.00% # Reads before turning the bus around for writes (Count)
board.memory.mem_ctrl1.rdPerTurnAround::1.46801e+07-1.52044e+07            1      0.00%    100.00% # Reads before turning the bus around for writes (Count)
board.memory.mem_ctrl1.rdPerTurnAround::total        23412                       # Reads before turning the bus around for writes (Count)
board.memory.mem_ctrl1.wrPerTurnAround::samples        23412                       # Writes before turning the bus around for reads (Count)
board.memory.mem_ctrl1.wrPerTurnAround::mean    16.049334                       # Writes before turning the bus around for reads (Count)
board.memory.mem_ctrl1.wrPerTurnAround::gmean    16.046550                       # Writes before turning the bus around for reads (Count)
board.memory.mem_ctrl1.wrPerTurnAround::stdev     0.310428                       # Writes before turning the bus around for reads (Count)
board.memory.mem_ctrl1.wrPerTurnAround::16        22835     97.54%     97.54% # Writes before turning the bus around for reads (Count)
board.memory.mem_ctrl1.wrPerTurnAround::18          576      2.46%    100.00% # Writes before turning the bus around for reads (Count)
board.memory.mem_ctrl1.wrPerTurnAround::19            1      0.00%    100.00% # Writes before turning the bus around for reads (Count)
board.memory.mem_ctrl1.wrPerTurnAround::total        23412                       # Writes before turning the bus around for reads (Count)
board.memory.mem_ctrl1.bytesReadWrQ         598011264                       # Total number of bytes read from write queue (Byte)
board.memory.mem_ctrl1.bytesReadSys         187711069                       # Total read bytes from the system interface side (Byte)
board.memory.mem_ctrl1.bytesWrittenSys       18373749                       # Total written bytes from the system interface side (Byte)
board.memory.mem_ctrl1.avgRdBWSys        50395892.31448370                       # Average system read bandwidth in Byte/s ((Byte/Second))
board.memory.mem_ctrl1.avgWrBWSys        4932908.22406084                       # Average system write bandwidth in Byte/s ((Byte/Second))
board.memory.mem_ctrl1.totGap            3724728816000                       # Total gap between requests (Tick)
board.memory.mem_ctrl1.avgGap                76103.68                       # Average gap between requests ((Tick/Count))
board.memory.mem_ctrl1.requestorReadBytes::processor.cores.core.inst     79447836                       # Per-requestor bytes read from memory (Byte)
board.memory.mem_ctrl1.requestorReadBytes::processor.cores.core.data     70887467                       # Per-requestor bytes read from memory (Byte)
board.memory.mem_ctrl1.requestorWriteBytes::processor.cores.core.data       443437                       # Per-requestor bytes write to memory (Byte)
board.memory.mem_ctrl1.requestorReadRate::processor.cores.core.inst 21329826.786478754133                       # Per-requestor bytes read from memory rate ((Byte/Second))
board.memory.mem_ctrl1.requestorReadRate::processor.cores.core.data 19031574.282806504518                       # Per-requestor bytes read from memory rate ((Byte/Second))
board.memory.mem_ctrl1.requestorWriteRate::processor.cores.core.data 119052.133788965366                       # Per-requestor bytes write to memory rate ((Byte/Second))
board.memory.mem_ctrl1.requestorReadAccesses::processor.cores.core.inst     19861959                       # Per-requestor read serviced memory accesses (Count)
board.memory.mem_ctrl1.requestorReadAccesses::processor.cores.core.data     23317419                       # Per-requestor read serviced memory accesses (Count)
board.memory.mem_ctrl1.requestorWriteAccesses::processor.cores.core.data      5763443                       # Per-requestor write serviced memory accesses (Count)
board.memory.mem_ctrl1.requestorReadTotalLat::processor.cores.core.inst 429280118250                       # Per-requestor read total memory access latency (Tick)
board.memory.mem_ctrl1.requestorReadTotalLat::processor.cores.core.data 302274183750                       # Per-requestor read total memory access latency (Tick)
board.memory.mem_ctrl1.requestorWriteTotalLat::processor.cores.core.data 85143517677000                       # Per-requestor write total memory access latency (Tick)
board.memory.mem_ctrl1.requestorReadAvgLat::processor.cores.core.inst     21613.18                       # Per-requestor read average memory access latency ((Tick/Count))
board.memory.mem_ctrl1.requestorReadAvgLat::processor.cores.core.data     12963.45                       # Per-requestor read average memory access latency ((Tick/Count))
board.memory.mem_ctrl1.requestorWriteAvgLat::processor.cores.core.data  14773030.23                       # Per-requestor write average memory access latency ((Tick/Count))
board.memory.mem_ctrl1.dram.bytesRead::processor.cores.core.inst     79447836                       # Number of bytes read from this memory (Byte)
board.memory.mem_ctrl1.dram.bytesRead::processor.cores.core.data    108263233                       # Number of bytes read from this memory (Byte)
board.memory.mem_ctrl1.dram.bytesRead::total    187711069                       # Number of bytes read from this memory (Byte)
board.memory.mem_ctrl1.dram.bytesInstRead::processor.cores.core.inst     79447836                       # Number of instructions bytes read from this memory (Byte)
board.memory.mem_ctrl1.dram.bytesInstRead::total     79447836                       # Number of instructions bytes read from this memory (Byte)
board.memory.mem_ctrl1.dram.bytesWritten::processor.cores.core.data     18373733                       # Number of bytes written to this memory (Byte)
board.memory.mem_ctrl1.dram.bytesWritten::total     18373733                       # Number of bytes written to this memory (Byte)
board.memory.mem_ctrl1.dram.numReads::processor.cores.core.inst     19861959                       # Number of read requests responded to by this memory (Count)
board.memory.mem_ctrl1.dram.numReads::processor.cores.core.data     23317419                       # Number of read requests responded to by this memory (Count)
board.memory.mem_ctrl1.dram.numReads::total     43179378                       # Number of read requests responded to by this memory (Count)
board.memory.mem_ctrl1.dram.numWrites::processor.cores.core.data      5763439                       # Number of write requests responded to by this memory (Count)
board.memory.mem_ctrl1.dram.numWrites::total      5763439                       # Number of write requests responded to by this memory (Count)
board.memory.mem_ctrl1.dram.bwRead::processor.cores.core.inst     21329827                       # Total read bandwidth from this memory ((Byte/Second))
board.memory.mem_ctrl1.dram.bwRead::processor.cores.core.data     29066066                       # Total read bandwidth from this memory ((Byte/Second))
board.memory.mem_ctrl1.dram.bwRead::total     50395892                       # Total read bandwidth from this memory ((Byte/Second))
board.memory.mem_ctrl1.dram.bwInstRead::processor.cores.core.inst     21329827                       # Instruction read bandwidth from this memory ((Byte/Second))
board.memory.mem_ctrl1.dram.bwInstRead::total     21329827                       # Instruction read bandwidth from this memory ((Byte/Second))
board.memory.mem_ctrl1.dram.bwWrite::processor.cores.core.data      4932904                       # Write bandwidth from this memory ((Byte/Second))
board.memory.mem_ctrl1.dram.bwWrite::total      4932904                       # Write bandwidth from this memory ((Byte/Second))
board.memory.mem_ctrl1.dram.bwTotal::processor.cores.core.inst     21329827                       # Total bandwidth to/from this memory ((Byte/Second))
board.memory.mem_ctrl1.dram.bwTotal::processor.cores.core.data     33998969                       # Total bandwidth to/from this memory ((Byte/Second))
board.memory.mem_ctrl1.dram.bwTotal::total     55328796                       # Total bandwidth to/from this memory ((Byte/Second))
board.memory.mem_ctrl1.dram.readBursts       33835452                       # Number of DRAM read bursts (Count)
board.memory.mem_ctrl1.dram.writeBursts        375747                       # Number of DRAM write bursts (Count)
board.memory.mem_ctrl1.dram.perBankRdBursts::0     19889878                       # Per bank write bursts (Count)
board.memory.mem_ctrl1.dram.perBankRdBursts::1        24988                       # Per bank write bursts (Count)
board.memory.mem_ctrl1.dram.perBankRdBursts::2     13497419                       # Per bank write bursts (Count)
board.memory.mem_ctrl1.dram.perBankRdBursts::3        27470                       # Per bank write bursts (Count)
board.memory.mem_ctrl1.dram.perBankRdBursts::4        33076                       # Per bank write bursts (Count)
board.memory.mem_ctrl1.dram.perBankRdBursts::5        33080                       # Per bank write bursts (Count)
board.memory.mem_ctrl1.dram.perBankRdBursts::6        33506                       # Per bank write bursts (Count)
board.memory.mem_ctrl1.dram.perBankRdBursts::7        33066                       # Per bank write bursts (Count)
board.memory.mem_ctrl1.dram.perBankRdBursts::8        32945                       # Per bank write bursts (Count)
board.memory.mem_ctrl1.dram.perBankRdBursts::9        33263                       # Per bank write bursts (Count)
board.memory.mem_ctrl1.dram.perBankRdBursts::10        32768                       # Per bank write bursts (Count)
board.memory.mem_ctrl1.dram.perBankRdBursts::11        32773                       # Per bank write bursts (Count)
board.memory.mem_ctrl1.dram.perBankRdBursts::12        32827                       # Per bank write bursts (Count)
board.memory.mem_ctrl1.dram.perBankRdBursts::13        32768                       # Per bank write bursts (Count)
board.memory.mem_ctrl1.dram.perBankRdBursts::14        32781                       # Per bank write bursts (Count)
board.memory.mem_ctrl1.dram.perBankRdBursts::15        32844                       # Per bank write bursts (Count)
board.memory.mem_ctrl1.dram.perBankWrBursts::0        22592                       # Per bank write bursts (Count)
board.memory.mem_ctrl1.dram.perBankWrBursts::1        18050                       # Per bank write bursts (Count)
board.memory.mem_ctrl1.dram.perBankWrBursts::2        40088                       # Per bank write bursts (Count)
board.memory.mem_ctrl1.dram.perBankWrBursts::3        18693                       # Per bank write bursts (Count)
board.memory.mem_ctrl1.dram.perBankWrBursts::4        21294                       # Per bank write bursts (Count)
board.memory.mem_ctrl1.dram.perBankWrBursts::5        22064                       # Per bank write bursts (Count)
board.memory.mem_ctrl1.dram.perBankWrBursts::6        22444                       # Per bank write bursts (Count)
board.memory.mem_ctrl1.dram.perBankWrBursts::7        22683                       # Per bank write bursts (Count)
board.memory.mem_ctrl1.dram.perBankWrBursts::8        22913                       # Per bank write bursts (Count)
board.memory.mem_ctrl1.dram.perBankWrBursts::9        23186                       # Per bank write bursts (Count)
board.memory.mem_ctrl1.dram.perBankWrBursts::10        23285                       # Per bank write bursts (Count)
board.memory.mem_ctrl1.dram.perBankWrBursts::11        23429                       # Per bank write bursts (Count)
board.memory.mem_ctrl1.dram.perBankWrBursts::12        23536                       # Per bank write bursts (Count)
board.memory.mem_ctrl1.dram.perBankWrBursts::13        23734                       # Per bank write bursts (Count)
board.memory.mem_ctrl1.dram.perBankWrBursts::14        23788                       # Per bank write bursts (Count)
board.memory.mem_ctrl1.dram.perBankWrBursts::15        23968                       # Per bank write bursts (Count)
board.memory.mem_ctrl1.dram.totQLat       97139577000                       # Total ticks spent queuing (Tick)
board.memory.mem_ctrl1.dram.totBusLat    169177260000                       # Total ticks spent in databus transfers (Tick)
board.memory.mem_ctrl1.dram.totMemAccLat 731554302000                       # Total ticks spent from burst creation until serviced by the DRAM (Tick)
board.memory.mem_ctrl1.dram.avgQLat           2870.94                       # Average queueing delay per DRAM burst ((Tick/Count))
board.memory.mem_ctrl1.dram.avgBusLat         5000.00                       # Average bus latency per DRAM burst ((Tick/Count))
board.memory.mem_ctrl1.dram.avgMemAccLat     21620.94                       # Average memory access latency per DRAM burst ((Tick/Count))
board.memory.mem_ctrl1.dram.readRowHits      31210771                       # Number of row buffer hits during reads (Count)
board.memory.mem_ctrl1.dram.writeRowHits       343893                       # Number of row buffer hits during writes (Count)
board.memory.mem_ctrl1.dram.readRowHitRate        92.24                       # Row buffer hit rate for reads (Ratio)
board.memory.mem_ctrl1.dram.writeRowHitRate        91.52                       # Row buffer hit rate for writes (Ratio)
board.memory.mem_ctrl1.dram.bytesPerActivate::samples      2656529                       # Bytes accessed per row activation (Byte)
board.memory.mem_ctrl1.dram.bytesPerActivate::mean   824.201095                       # Bytes accessed per row activation (Byte)
board.memory.mem_ctrl1.dram.bytesPerActivate::gmean   731.233494                       # Bytes accessed per row activation (Byte)
[...]
board.processor.cores.core.commitStats0.committedInstType::VectorFloatReduce            0      0.00%    100.00% # Class of committed instruction. (Count)
board.processor.cores.core.commitStats0.committedInstType::VectorMisc            0      0.00%    100.00% # Class of committed instruction. (Count)
board.processor.cores.core.commitStats0.committedInstType::VectorIntegerExtension            0      0.00%    100.00% # Class of committed instruction. (Count)
board.processor.cores.core.commitStats0.committedInstType::VectorConfig            0      0.00%    100.00% # Class of committed instruction. (Count)
board.processor.cores.core.commitStats0.committedInstType::total     50731503                       # Class of committed instruction. (Count)
board.processor.cores.core.commitStats0.committedControl::IsControl      5129990                       # Class of control type instructions committed (Count)
board.processor.cores.core.commitStats0.committedControl::IsDirectControl      5128783                       # Class of control type instructions committed (Count)
board.processor.cores.core.commitStats0.committedControl::IsIndirectControl         1207                       # Class of control type instructions committed (Count)
board.processor.cores.core.commitStats0.committedControl::IsCondControl      5126361                       # Class of control type instructions committed (Count)
board.processor.cores.core.commitStats0.committedControl::IsUncondControl         3629                       # Class of control type instructions committed (Count)
board.processor.cores.core.commitStats0.committedControl::IsCall         1176                       # Class of control type instructions committed (Count)
board.processor.cores.core.commitStats0.committedControl::IsReturn         1171                       # Class of control type instructions committed (Count)
board.processor.cores.core.exec_context.thread_0.numMatAluAccesses            0                       # Number of matrix alu accesses (Count)
board.processor.cores.core.exec_context.thread_0.numCallsReturns         2347                       # Number of times a function call or return occured (Count)
board.processor.cores.core.exec_context.thread_0.numMatInsts            0                       # Number of matrix instructions (Count)
board.processor.cores.core.exec_context.thread_0.numIdleCycles     0.001000                       # Number of idle cycles (Cycle)
board.processor.cores.core.exec_context.thread_0.numBusyCycles 3724729543.999000                       # Number of busy cycles (Cycle)
board.processor.cores.core.exec_context.thread_0.notIdleFraction     1.000000                       # Percentage of non-idle cycles (Ratio)
board.processor.cores.core.exec_context.thread_0.idleFraction     0.000000                       # Percentage of idle cycles (Ratio)
board.processor.cores.core.executeStats0.numInsts            0                       # Number of executed instructions (Count)
board.processor.cores.core.executeStats0.numNop            0                       # Number of nop insts executed (Count)
board.processor.cores.core.executeStats0.numBranches            0                       # Number of branches executed (Count)
board.processor.cores.core.executeStats0.numLoadInsts            0                       # Number of load instructions executed (Count)
board.processor.cores.core.executeStats0.numStoreInsts     31143993                       # Number of stores executed (Count)
board.processor.cores.core.executeStats0.instRate            0                       # Inst execution rate ((Count/Cycle))
board.processor.cores.core.executeStats0.numFpRegWrites            0                       # Number of times the floating registers were written (Count)
board.processor.cores.core.executeStats0.numIntAluAccesses     45601184                       # Number of integer alu accesses (Count)
board.processor.cores.core.executeStats0.numIntRegReads     60170977                       # Number of times the integer registers were read (Count)
board.processor.cores.core.executeStats0.numIntRegWrites     33148408                       # Number of times the integer registers were written (Count)
board.processor.cores.core.executeStats0.numMemRefs     31143993                       # Number of memory refs (Count)
board.processor.cores.core.executeStats0.numMiscRegReads        15375                       # Number of times the Misc registers were read (Count)
board.processor.cores.core.executeStats0.numMiscRegWrites         5045                       # Number of times the Misc registers were written (Count)
board.processor.cores.core.executeStats0.numVecAluAccesses         5152                       # Number of vector alu accesses (Count)
board.processor.cores.core.executeStats0.numVecRegReads         4157                       # Number of times the vector registers were read (Count)
board.processor.cores.core.executeStats0.numVecRegWrites         3066                       # Number of times the vector registers were written (Count)
board.processor.cores.core.executeStats0.numDiscardedOps            0                       # Number of ops (including micro ops) which were discarded before commit (Count)
board.processor.cores.core.fetchStats0.numInsts     50730035                       # Number of instructions fetched (thread level) (Count)
board.processor.cores.core.fetchStats0.numOps     50731503                       # Number of ops (including micro ops) fetched (thread level) (Count)
board.processor.cores.core.fetchStats0.fetchRate     0.013620                       # Number of inst fetches per cycle ((Count/Cycle))
board.processor.cores.core.fetchStats0.numBranches      5129990                       # Number of branches fetched (Count)
board.processor.cores.core.fetchStats0.branchRate     0.001377                       # Number of branch fetches per cycle (Ratio)
board.processor.cores.core.fetchStats0.numFetchSuspends            0                       # Number of times Execute suspended instruction fetching (Count)
board.processor.cores.core.mmu.alignFaults            0                       # Number of MMU faults due to alignment restrictions (Count)
board.processor.cores.core.mmu.prefetchFaults            0                       # Number of MMU faults due to prefetch (Count)
board.processor.cores.core.mmu.domainFaults            0                       # Number of MMU faults due to domain restrictions (Count)
board.processor.cores.core.mmu.permsFaults            0                       # Number of MMU faults due to permissions restrictions (Count)
board.processor.cores.core.mmu.dtb.readHits            0                       # Read hits (Count)
board.processor.cores.core.mmu.dtb.readMisses            0                       # Read misses (Count)
board.processor.cores.core.mmu.dtb.writeHits            0                       # Write hits (Count)
board.processor.cores.core.mmu.dtb.writeMisses            0                       # Write misses (Count)
board.processor.cores.core.mmu.dtb.inserts            0                       # Number of times an entry is inserted into the TLB (Count)
board.processor.cores.core.mmu.dtb.flushTlb            1                       # Number of times a TLB invalidation was requested (Count)
board.processor.cores.core.mmu.dtb.flushedEntries            0                       # Number of entries that have been flushed from TLB (Count)
board.processor.cores.core.mmu.dtb.readAccesses            0                       # Read accesses (Count)
board.processor.cores.core.mmu.dtb.writeAccesses            0                       # Write accesses (Count)
board.processor.cores.core.mmu.dtb.hits             0                       # Total TLB (inst and data) hits (Count)
board.processor.cores.core.mmu.dtb.misses            0                       # Total TLB (inst and data) misses (Count)
board.processor.cores.core.mmu.dtb.accesses            0                       # Total TLB (inst and data) accesses (Count)
board.processor.cores.core.mmu.dtb_walker.walks            0                       # Table walker walks requested (Count)
board.processor.cores.core.mmu.dtb_walker.requestOrigin_Requested::Data            0                       # Table walker requests started/completed, data/inst (Count)
board.processor.cores.core.mmu.dtb_walker.requestOrigin_Requested::Inst            0                       # Table walker requests started/completed, data/inst (Count)
board.processor.cores.core.mmu.dtb_walker.requestOrigin_Requested::total            0                       # Table walker requests started/completed, data/inst (Count)
board.processor.cores.core.mmu.dtb_walker.requestOrigin_Completed::Data            0                       # Table walker requests started/completed, data/inst (Count)
board.processor.cores.core.mmu.dtb_walker.requestOrigin_Completed::Inst            0                       # Table walker requests started/completed, data/inst (Count)
board.processor.cores.core.mmu.dtb_walker.requestOrigin_Completed::total            0                       # Table walker requests started/completed, data/inst (Count)
board.processor.cores.core.mmu.dtb_walker.requestOrigin::total            0                       # Table walker requests started/completed, data/inst (Count)
board.processor.cores.core.mmu.dtb_walker.power_state.pwrStateResidencyTicks::UNDEFINED 3724729544000                       # Cumulative time (in ticks) in various power states (Tick)
board.processor.cores.core.mmu.itb.instHits            0                       # Inst hits (Count)
board.processor.cores.core.mmu.itb.instMisses            0                       # Inst misses (Count)
board.processor.cores.core.mmu.itb.inserts            0                       # Number of times an entry is inserted into the TLB (Count)
board.processor.cores.core.mmu.itb.flushTlb            1                       # Number of times a TLB invalidation was requested (Count)
board.processor.cores.core.mmu.itb.flushedEntries            0                       # Number of entries that have been flushed from TLB (Count)
board.processor.cores.core.mmu.itb.instAccesses            0                       # Inst accesses (Count)
board.processor.cores.core.mmu.itb.hits             0                       # Total TLB (inst and data) hits (Count)
board.processor.cores.core.mmu.itb.misses            0                       # Total TLB (inst and data) misses (Count)
board.processor.cores.core.mmu.itb.accesses            0                       # Total TLB (inst and data) accesses (Count)
board.processor.cores.core.mmu.itb_walker.walks            0                       # Table walker walks requested (Count)
board.processor.cores.core.mmu.itb_walker.requestOrigin_Requested::Data            0                       # Table walker requests started/completed, data/inst (Count)
board.processor.cores.core.mmu.itb_walker.requestOrigin_Requested::Inst            0                       # Table walker requests started/completed, data/inst (Count)
board.processor.cores.core.mmu.itb_walker.requestOrigin_Requested::total            0                       # Table walker requests started/completed, data/inst (Count)
board.processor.cores.core.mmu.itb_walker.requestOrigin_Completed::Data            0                       # Table walker requests started/completed, data/inst (Count)
board.processor.cores.core.mmu.itb_walker.requestOrigin_Completed::Inst            0                       # Table walker requests started/completed, data/inst (Count)
board.processor.cores.core.mmu.itb_walker.requestOrigin_Completed::total            0                       # Table walker requests started/completed, data/inst (Count)
board.processor.cores.core.mmu.itb_walker.requestOrigin::total            0                       # Table walker requests started/completed, data/inst (Count)
board.processor.cores.core.mmu.itb_walker.power_state.pwrStateResidencyTicks::UNDEFINED 3724729544000                       # Cumulative time (in ticks) in various power states (Tick)
board.processor.cores.core.mmu.l2_shared.instHits            0                       # Inst hits (Count)
board.processor.cores.core.mmu.l2_shared.instMisses            0                       # Inst misses (Count)
board.processor.cores.core.mmu.l2_shared.inserts            0                       # Number of times an entry is inserted into the TLB (Count)
board.processor.cores.core.mmu.l2_shared.flushTlb            1                       # Number of times a TLB invalidation was requested (Count)
board.processor.cores.core.mmu.l2_shared.flushedEntries            0                       # Number of entries that have been flushed from TLB (Count)
board.processor.cores.core.mmu.l2_shared.instAccesses            0                       # Inst accesses (Count)
board.processor.cores.core.mmu.l2_shared.hits            0                       # Total TLB (inst and data) hits (Count)
board.processor.cores.core.mmu.l2_shared.misses            0                       # Total TLB (inst and data) misses (Count)
board.processor.cores.core.mmu.l2_shared.accesses            0                       # Total TLB (inst and data) accesses (Count)
board.processor.cores.core.mmu.stage2_dtb.readHits            0                       # Read hits (Count)
board.processor.cores.core.mmu.stage2_dtb.readMisses            0                       # Read misses (Count)
board.processor.cores.core.mmu.stage2_dtb.writeHits            0                       # Write hits (Count)
board.processor.cores.core.mmu.stage2_dtb.writeMisses            0                       # Write misses (Count)
board.processor.cores.core.mmu.stage2_dtb.inserts            0                       # Number of times an entry is inserted into the TLB (Count)
board.processor.cores.core.mmu.stage2_dtb.flushTlb            1                       # Number of times a TLB invalidation was requested (Count)
board.processor.cores.core.mmu.stage2_dtb.flushedEntries            0                       # Number of entries that have been flushed from TLB (Count)
board.processor.cores.core.mmu.stage2_dtb.readAccesses            0                       # Read accesses (Count)
board.processor.cores.core.mmu.stage2_dtb.writeAccesses            0                       # Write accesses (Count)
board.processor.cores.core.mmu.stage2_dtb.hits            0                       # Total TLB (inst and data) hits (Count)
board.processor.cores.core.mmu.stage2_dtb.misses            0                       # Total TLB (inst and data) misses (Count)
board.processor.cores.core.mmu.stage2_dtb.accesses            0                       # Total TLB (inst and data) accesses (Count)
board.processor.cores.core.mmu.stage2_dtb_walker.walks            0                       # Table walker walks requested (Count)
board.processor.cores.core.mmu.stage2_dtb_walker.requestOrigin_Requested::Data            0                       # Table walker requests started/completed, data/inst (Count)
board.processor.cores.core.mmu.stage2_dtb_walker.requestOrigin_Requested::Inst            0                       # Table walker requests started/completed, data/inst (Count)
board.processor.cores.core.mmu.stage2_dtb_walker.requestOrigin_Requested::total            0                       # Table walker requests started/completed, data/inst (Count)
board.processor.cores.core.mmu.stage2_dtb_walker.requestOrigin_Completed::Data            0                       # Table walker requests started/completed, data/inst (Count)
board.processor.cores.core.mmu.stage2_dtb_walker.requestOrigin_Completed::Inst            0                       # Table walker requests started/completed, data/inst (Count)
board.processor.cores.core.mmu.stage2_dtb_walker.requestOrigin_Completed::total            0                       # Table walker requests started/completed, data/inst (Count)
board.processor.cores.core.mmu.stage2_dtb_walker.requestOrigin::total            0                       # Table walker requests started/completed, data/inst (Count)
board.processor.cores.core.mmu.stage2_dtb_walker.power_state.pwrStateResidencyTicks::UNDEFINED 3724729544000                       # Cumulative time (in ticks) in various power states (Tick)
board.processor.cores.core.mmu.stage2_itb.instHits            0                       # Inst hits (Count)
board.processor.cores.core.mmu.stage2_itb.instMisses            0                       # Inst misses (Count)
board.processor.cores.core.mmu.stage2_itb.inserts            0                       # Number of times an entry is inserted into the TLB (Count)
board.processor.cores.core.mmu.stage2_itb.flushTlb            1                       # Number of times a TLB invalidation was requested (Count)
board.processor.cores.core.mmu.stage2_itb.flushedEntries            0                       # Number of entries that have been flushed from TLB (Count)
board.processor.cores.core.mmu.stage2_itb.instAccesses            0                       # Inst accesses (Count)
board.processor.cores.core.mmu.stage2_itb.hits            0                       # Total TLB (inst and data) hits (Count)
board.processor.cores.core.mmu.stage2_itb.misses            0                       # Total TLB (inst and data) misses (Count)
board.processor.cores.core.mmu.stage2_itb.accesses            0                       # Total TLB (inst and data) accesses (Count)
board.processor.cores.core.mmu.stage2_itb_walker.walks            0                       # Table walker walks requested (Count)
board.processor.cores.core.mmu.stage2_itb_walker.requestOrigin_Requested::Data            0                       # Table walker requests started/completed, data/inst (Count)
board.processor.cores.core.mmu.stage2_itb_walker.requestOrigin_Requested::Inst            0                       # Table walker requests started/completed, data/inst (Count)
board.processor.cores.core.mmu.stage2_itb_walker.requestOrigin_Requested::total            0                       # Table walker requests started/completed, data/inst (Count)
board.processor.cores.core.mmu.stage2_itb_walker.requestOrigin_Completed::Data            0                       # Table walker requests started/completed, data/inst (Count)
board.processor.cores.core.mmu.stage2_itb_walker.requestOrigin_Completed::Inst            0                       # Table walker requests started/completed, data/inst (Count)
board.processor.cores.core.mmu.stage2_itb_walker.requestOrigin_Completed::total            0                       # Table walker requests started/completed, data/inst (Count)
board.processor.cores.core.mmu.stage2_itb_walker.requestOrigin::total            0                       # Table walker requests started/completed, data/inst (Count)
board.processor.cores.core.mmu.stage2_itb_walker.power_state.pwrStateResidencyTicks::UNDEFINED 3724729544000                       # Cumulative time (in ticks) in various power states (Tick)
board.processor.cores.core.power_state.pwrStateResidencyTicks::ON 3724729544000                       # Cumulative time (in ticks) in various power states (Tick)
board.processor.cores.core.thread_0.numInsts            0                       # Number of Instructions committed (Count)
board.processor.cores.core.thread_0.numOps            0                       # Number of Ops committed (Count)
board.processor.cores.core.thread_0.numMemRefs            0                       # Number of Memory References (Count)
board.processor.cores.core.workload.numSyscalls           17                       # Number of system calls (Count)
board.workload.inst.arm                             0                       # number of arm instructions executed (Count)
board.workload.inst.quiesce                         0                       # number of quiesce instructions executed (Count)

---------- End Simulation Statistics   ----------
